@<TRIPOS>MOLECULE
HD1
   17    17     1     0     0
SMALL
RESP Charge
 
 
@<TRIPOS>ATOM
      1 N         -11.0700   -0.4110   11.0900 N         1 HD1     -0.415700
      2 H         -11.2470   -0.5080   12.0810 H         1 HD1      0.317341
      3 CA        -10.1820   -1.3840   10.4590 XC        1 HD1      0.018800
      4 HA        -10.5000   -1.5690    9.4320 H1        1 HD1      0.073416
      5 CB         -8.7380   -0.8690   10.4430 CT        1 HD1     -0.176754
      6 HB2        -8.0750   -1.5780    9.9470 HC        1 HD1      0.108341
      7 HB3        -8.7650    0.0520    9.8750 HC        1 HD1      0.108341
      8 CG         -8.2170   -0.5520   11.8330 CC        1 HD1     -0.018176
      9 ND1        -8.4070    0.6750   12.3160 NA        1 HD1     -0.140867
     10 HD1        -8.8640    1.4210   11.8110 H         1 HD1      0.356882
     11 CE1        -7.9260    0.7780   13.5830 CR        1 HD1     -0.114383
     12 HE1        -7.9490    1.6550   14.2100 H5        1 HD1      0.198712
     13 NE2        -7.4090   -0.4320   13.9200 Y1        1 HD1     -0.064049
     14 CD2        -7.5720   -1.2810   12.8570 CV        1 HD1     -0.128907
     15 HD2        -7.2930   -2.3210   12.8040 H4        1 HD1      0.105086
     16 C         -10.2680   -2.6950   11.2320 C         1 HD1      0.597300
     17 O         -10.9770   -2.7840   12.2360 O         1 HD1     -0.567900
@<TRIPOS>BOND
     1    1    2 1
     2    1    3 1
     3    3    4 1
     4    3    5 1
     5    3   16 1
     6    5    6 1
     7    5    7 1
     8    5    8 1
     9    8    9 1
    10    8   14 1
    11    9   10 1
    12    9   11 1
    13   11   12 1
    14   11   13 1
    15   13   14 1
    16   14   15 1
    17   16   17 1
@<TRIPOS>SUBSTRUCTURE
     1 HD1         1 TEMP              0 ****  ****    0 ROOT
