@<TRIPOS>MOLECULE
HD2
   17    17     1     0     0
SMALL
RESP Charge
 
 
@<TRIPOS>ATOM
      1 N          -8.0440   -6.5910   12.4090 N         1 HD2     -0.415700
      2 H          -8.8840   -6.9630   12.8310 H         1 HD2      0.328262
      3 CA         -6.7900   -7.2920   12.6870 XC        1 HD2      0.018800
      4 HA         -6.0230   -7.0490   11.9520 H1        1 HD2      0.089611
      5 CB         -6.2860   -7.0420   14.1120 CT        1 HD2      0.167799
      6 HB2        -7.0320   -7.3860   14.8310 HC        1 HD2      0.041010
      7 HB3        -5.3760   -7.6210   14.2660 HC        1 HD2      0.041010
      8 CG         -6.0060   -5.5840   14.3790 CC        1 HD2     -0.270089
      9 ND1        -4.7550   -5.1370   14.2690 NA        1 HD2     -0.051354
     10 HD1        -3.9550   -5.7160   14.0550 H         1 HD2      0.319942
     11 CE1        -4.7070   -3.7990   14.4960 CR        1 HD2     -0.122731
     12 HE1        -3.8160   -3.1870   14.5070 H5        1 HD2      0.201990
     13 NE2        -5.9700   -3.3850   14.7600 Y2        1 HD2     -0.011567
     14 CD2        -6.7990   -4.4660   14.6940 CV        1 HD2     -0.013245
     15 HD2        -7.8690   -4.4680   14.8430 H4        1 HD2      0.095432
     16 C          -7.2540   -8.7390   12.5450 C         1 HD2      0.597300
     17 O          -8.3410   -9.0810   13.0150 O         1 HD2     -0.567900
@<TRIPOS>BOND
     1    1    2 1
     2    1    3 1
     3    3    4 1
     4    3    5 1
     5    3   16 1
     6    5    6 1
     7    5    7 1
     8    5    8 1
     9    8    9 1
    10    8   14 1
    11    9   10 1
    12    9   11 1
    13   11   12 1
    14   11   13 1
    15   13   14 1
    16   14   15 1
    17   16   17 1
@<TRIPOS>SUBSTRUCTURE
     1 HD2         1 TEMP              0 ****  ****    0 ROOT
