@<TRIPOS>MOLECULE
HE1
   17    17     1     0     0
SMALL
RESP Charge
 
 
@<TRIPOS>ATOM
      1 N         -11.9750   -2.5260   14.9260 N         1 HE1     -0.415700
      2 H         -11.6480   -2.5250   13.9710 H         1 HE1      0.295467
      3 CA        -11.7520   -1.3330   15.7310 XC        1 HE1     -0.058100
      4 HA        -12.1850   -1.4520   16.7220 H1        1 HE1      0.128736
      5 CB        -10.2560   -1.0730   15.9200 CT        1 HE1      0.081790
      6 HB2        -9.7870   -1.0570   14.9380 HC        1 HE1      0.051598
      7 HB3       -10.1070   -0.1000   16.3820 HC        1 HE1      0.051598
      8 CG         -9.5830   -2.1250   16.7670 CC        1 HE1     -0.045151
      9 ND1        -8.2600   -2.2360   16.6970 Y3        1 HE1     -0.003687
     10 CE1        -7.8230   -3.2650   17.4740 CR        1 HE1     -0.083878
     11 HE1        -6.8440   -3.3360   17.8410 H5        1 HE1      0.159705
     12 NE2        -8.9070   -3.8220   18.0530 NA        1 HE1     -0.158412
     13 HE2        -8.8820   -4.5290   18.7700 H         1 HE1      0.340525
     14 CD2       -10.0170   -3.1400   17.6430 CW        1 HE1     -0.141916
     15 HD2       -11.0310   -3.3270   17.9530 H4        1 HE1      0.169412
     16 C         -12.3730   -0.1130   15.0860 C         1 HE1      0.597300
     17 O         -12.0050    0.2570   13.9600 O         1 HE1     -0.567900
@<TRIPOS>BOND
     1    1    2 1
     2    1    3 1
     3    3    4 1
     4    3    5 1
     5    3   16 1
     6    5    6 1
     7    5    7 1
     8    5    8 1
     9    8    9 1
    10    8   14 1
    11    9   10 1
    12   10   11 1
    13   10   12 1
    14   12   13 1
    15   12   14 1
    16   14   15 1
    17   16   17 1
@<TRIPOS>SUBSTRUCTURE
     1 HE1         1 TEMP              0 ****  ****    0 ROOT
