@<TRIPOS>MOLECULE
MNS
   30    31     1     0     0
SMALL
bcc


@<TRIPOS>ATOM
      1 C1         -5.2670    2.0110   15.7090 ca      862 MNS     -0.165500
      2 C2         -4.5510    1.5230   14.5980 ca      862 MNS     -0.102000
      3 C3         -4.0850    2.4330   13.6540 ca      862 MNS     -0.141000
      4 C4         -4.3270    3.8040   13.8100 ca      862 MNS     -0.147000
      5 C4A        -5.0370    4.3650   14.8970 ca      862 MNS     -0.058000
      6 C5         -5.2940    5.7660   15.0740 ca      862 MNS      0.067600
      7 C6         -6.0160    6.1860   16.2070 ca      862 MNS     -0.112000
      8 C7         -6.4910    5.2760   17.1660 ca      862 MNS     -0.173000
      9 C8         -6.2330    3.9050   16.9830 ca      862 MNS     -0.067000
     10 C8A        -5.5130    3.4240   15.8650 ca      862 MNS      0.030000
     11 N          -4.7820    6.7640   14.0340 nh      862 MNS     -0.652000
     12 CM1        -3.5760    6.8600   14.1100 c3      862 MNS      0.179100
     13 CM2        -5.4690    6.6220   12.9000 c3      862 MNS      0.179100
     14 S          -5.8600    0.9290   16.8970 sy      862 MNS      1.506000
     15 O1S        -7.3490    1.0470   16.9670 o       862 MNS     -0.729200
     16 O2S        -5.2510    1.2730   18.2200 o       862 MNS     -0.772800
     17 N3S        -5.4860   -0.4700   16.5240 n2      862 MNS     -1.248900
     18 HN31       -5.0400   -0.6180   15.8040 hn      862 MNS      0.509400
     19 HM23       -5.3550    5.7200   12.5630 h1      862 MNS      0.024033
     20 HM22       -6.4100    6.7870   13.0690 h1      862 MNS      0.024033
     21 HM21       -5.1430    7.2560   12.2420 h1      862 MNS      0.024033
     22 HM13       -3.3310    7.1690   14.9960 h1      862 MNS      0.024033
     23 HM12       -3.1710    5.9940   13.9470 h1      862 MNS      0.024033
     24 HM11       -3.2590    7.4940   13.4480 h1      862 MNS      0.024033
     25 H8         -6.5580    3.2720   17.6420 ha      862 MNS      0.185000
     26 H7         -6.9870    5.5870   17.9390 ha      862 MNS      0.118000
     27 H6         -6.1910    7.1320   16.3290 ha      862 MNS      0.120000
     28 H4         -3.9860    4.4060   13.1300 ha      862 MNS      0.106000
     29 H3         -3.5890    2.1160   12.8830 ha      862 MNS      0.103000
     30 H2         -4.3860    0.5730   14.4930 ha      862 MNS      0.123000
@<TRIPOS>BOND
     1    1    2 ar  
     2    1   10 ar  
     3    1   14 1   
     4    2    3 ar  
     5    2   30 1   
     6    3    4 ar  
     7    3   29 1   
     8    4    5 ar  
     9    4   28 1   
    10    5    6 ar  
    11    5   10 ar  
    12    6    7 ar  
    13    6   11 1   
    14    7    8 ar  
    15    7   27 1   
    16    8    9 ar  
    17    8   26 1   
    18    9   10 ar  
    19    9   25 1   
    20   11   12 1   
    21   11   13 1   
    22   12   22 1   
    23   12   23 1   
    24   12   24 1   
    25   13   19 1   
    26   13   20 1   
    27   13   21 1   
    28   14   15 1   
    29   14   16 2   
    30   14   17 2   
    31   17   18 1   
@<TRIPOS>SUBSTRUCTURE
     1 MNS         1 TEMP              0 ****  ****    0 ROOT
